THERMO ALL
  300.000  1000.000  5000.000
AR                      AR  1               G     200.0    6000.0  1000.0      1
          2.5E0          0.0E0          0.0E0          0.0E0          0.0E0    2
     -7.45375E2   4.37967491E0          2.5E0          0.0E0          0.0E0    3
          0.0E0          0.0E0     -7.45375E2   4.37967491E0                   4
N2                      N   2               G     200.0    6000.0  1000.0      1
   2.95257637E0   1.3969004E-3 -4.92631603E-7 7.86010195E-11-4.60755204E-15    2
  -9.23948688E2   5.87188762E0   3.53100528E0 -1.23660988E-4 -5.02999433E-7    3
  2.43530612E-9-1.40881235E-12  -1.04697628E3   2.96747038E0                   4
H2                      H   2               G     200.0    6000.0  1000.0      1
   2.93286575E0  8.26608026E-4 -1.46402364E-7 1.54100414E-11  -6.888048E-16    2
  -8.13065581E2  -1.02432865E0   2.34433112E0  7.98052075E-3  -1.9478151E-5    3
  2.01572094E-8-7.37611761E-12  -9.17935173E2  6.83010238E-1                   4
H                       H   1               G     200.0    6000.0  1000.0      1
          2.5E0          0.0E0          0.0E0          0.0E0          0.0E0    2
     2.547366E4  -4.4668285E-1          2.5E0          0.0E0          0.0E0    3
          0.0E0          0.0E0     2.547366E4  -4.4668285E-1                   4
O2                      O   2               G     200.0    6000.0  1000.0      1
   3.66096065E0  6.56365811E-4 -1.41149627E-7 2.05797935E-11-1.29913436E-15    2
  -1.21597718E3   3.41536279E0   3.78245636E0 -2.99673416E-3  9.84730201E-6    3
 -9.68129509E-9 3.24372837E-12  -1.06394356E3   3.65767573E0                   4
HE                      HE  1               G     200.0    6000.0  1000.0      1
          2.5E0          0.0E0          0.0E0          0.0E0          0.0E0    2
     -7.45375E2  9.28723974E-1          2.5E0          0.0E0          0.0E0    3
          0.0E0          0.0E0     -7.45375E2  9.28723974E-1                   4
O                       O   1               G     200.0    6000.0  1000.0      1
   2.54363697E0 -2.73162486E-5  -4.1902952E-9 4.95481845E-12-4.79553694E-16    2
    2.9226012E4   4.92229457E0    3.1682671E0 -3.27931884E-3  6.64306396E-6    3
 -6.12806624E-9 2.11265971E-12   2.91222592E4   2.05193346E0                   4
H2O                     H   2O   1          G     200.0    6000.0  1000.0      1
    2.6770389E0   2.9731816E-3  -7.7376889E-7  9.4433514E-11 -4.2689991E-15    2
   -2.9885894E4      6.88255E0    4.1986352E0  -2.0364017E-3   6.5203416E-6    3
  -5.4879269E-9   1.771968E-12   -3.0293726E4  -8.4900901E-1                   4
OH                      H   1O   1          G     200.0    6000.0  1000.0      1
   2.83853033E0  1.10741289E-3 -2.94000209E-7 4.20698729E-11 -2.4228989E-15    2
   3.69780808E3   5.84494652E0   3.99198424E0 -2.40106655E-3  4.61664033E-6    3
 -3.87916306E-9 1.36319502E-12   3.36889836E3 -1.03998477E-1                   4
OHV                     H   1O   1          G     300.0    5000.0  1710.0      1
    2.8537604E0  1.02994334E-3 -2.32666477E-7 1.93750704E-11-3.15759847E-16    2
   5.03225473E4   5.76240468E0   3.41896226E0  3.19255801E-4 -3.08292717E-7    3
 3.64407494E-10-1.00195479E-13   5.00756946E4   2.51917016E0                   4
H2O2                    H   2O   2          G     200.0    6000.0  1000.0      1
   4.57977305E0  4.05326003E-3  -1.2984473E-6   1.982114E-10-1.13968792E-14    2
  -1.80071775E4  6.64970694E-1   4.31515149E0 -8.47390622E-4  1.76404323E-5    3
 -2.26762944E-8 9.08950158E-12  -1.77067437E4   3.27373319E0                   4
HO2                     H   1O   2          G     200.0    5000.0  1000.0      1
   4.17228741E0  1.88117627E-3 -3.46277286E-7 1.94657549E-11 1.76256905E-16    2
   3.10206839E1   2.95767672E0   4.30179807E0 -4.74912097E-3  2.11582905E-5    3
 -2.42763914E-8 9.29225225E-12   2.64018485E2    3.7166622E0                   4
HOCO                    C   1H   1O   2     G     200.0    6000.0  1000.0      1
   5.39206152E0  4.11221455E-3   -1.481949E-6  2.3987546E-10-1.43903104E-14    2
  -2.38606717E4  -2.23529091E0   2.92207919E0  7.62453859E-3  3.29884437E-6    3
 -1.07135205E-8 5.11587057E-12  -2.30281524E4   1.12925886E1                   4
CO                      C   1O   1          G     200.0    6000.0  1000.0      1
    3.0484859E0   1.3517281E-3  -4.8579405E-7  7.8853644E-11 -4.6980746E-15    2
   -1.4266117E4    6.0170977E0    3.5795335E0  -6.1035369E-4   1.0168143E-6    3
  9.0700586E-10 -9.0442449E-13   -1.4344086E4    3.5084093E0                   4
CO2                     C   1O   2          G     200.0    6000.0  1000.0      1
    4.6365111E0   2.7414569E-3  -9.9589759E-7  1.6038666E-10 -9.1619857E-15    2
   -4.9024904E4   -1.9348955E0     2.356813E0   8.9841299E-3  -7.1220632E-6    3
   2.4573008E-9 -1.4288548E-13   -4.8371971E4    9.9009035E0                   4
CH3O2H                  C   1H   4O   2     G     200.0    3000.0  1000.0      1
   4.20735213E0   1.5509466E-2 -7.66929578E-6  1.83432162E-9-1.72492118E-13    2
  -1.74303104E4   4.24021387E0   4.65854273E0  3.10653649E-4  4.25717961E-5    3
 -5.64767746E-8 2.26451339E-11  -1.70148766E4   4.93439159E0                   4
CH3O2                   C   1H   3O   2     G     200.0    3000.0  1000.0      1
   3.06355808E0  1.41402571E-2 -7.09719627E-6  1.72124732E-9-1.63773189E-13    2
  -1.24115232E2   1.06316786E1    5.5280458E0  -8.7739067E-3  5.35999599E-5    3
 -6.22370558E-8 2.35470499E-11  -1.16495256E2   1.56491488E0                   4
CH2O2H                  C   1H   3O   2     G     300.0    5000.0  1410.0      1
   9.24697852E0  4.60845541E-3 -1.53501472E-6  2.3443483E-10-1.34573106E-14    2
   4.11529953E3  -2.11503248E1   2.88976454E0  2.09465776E-2 -1.75190772E-5    3
  7.27819787E-9-1.18912344E-12    6.1239062E3   1.23802076E1                   4
CH4                     C   1H   4          G     200.0    6000.0  1000.0      1
   1.65326226E0  1.00263099E-2 -3.31661238E-6 5.36483138E-10-3.14696758E-14    2
  -1.00095936E4   9.90506283E0   5.14911468E0 -1.36622009E-2  4.91453921E-5    3
 -4.84246767E-8 1.66603441E-11  -1.02465983E4  -4.63848842E0                   4
CH3                     C   1H   3          G     200.0    6000.0  1000.0      1
    2.9781206E0    5.797852E-3    -1.97558E-6   3.072979E-10 -1.7917416E-14    2
    1.6509513E4    4.7224799E0    3.6571797E0   2.1265979E-3   5.4583883E-6    3
  -6.6181003E-9  2.4657074E-12    1.6422716E4    1.6735354E0                   4
CH2                     C   1H   2          G     200.0    6000.0  1000.0      1
   3.14631886E0  3.03671259E-3 -9.96474439E-7  1.5048358E-10-8.57335515E-15    2
   4.60412605E4   4.72341711E0   3.71757846E0   1.2739126E-3  2.17347251E-6    3
   -3.488585E-9 1.65208866E-12   4.58723866E4   1.75297945E0                   4
CH2(S)                  C   1H   2          G     200.0    6000.0  1000.0      1
   3.13501686E0  2.89593926E-3  -8.1666809E-7 1.13572697E-10-6.36262835E-15    2
   5.05040504E4   4.06030621E0   4.19331325E0 -2.33105184E-3  8.15676451E-6    3
 -6.62985981E-9 1.93233199E-12   5.03662246E4  -7.4673431E-1                   4
C                       C   1               G     200.0    6000.0  1000.0      1
     2.605583E0  -1.9593434E-4   1.0673722E-7  -1.642394E-11   8.187058E-16    2
    8.5411742E4    4.1923868E0    2.5542395E0  -3.2153772E-4   7.3379223E-7    3
 -7.3223487E-10  2.6652144E-13    8.5442681E4    4.5313085E0                   4
CH                      C   1H   1          G     200.0    6000.0  1000.0      1
    2.5209369E0   1.7653639E-3   -4.614766E-7  5.9289675E-11 -3.3474501E-15    2
    7.0946769E4    7.4051829E0    3.4897583E0    3.243216E-4  -1.6899751E-6    3
    3.162842E-9 -1.4061803E-12    7.0612646E4    2.0842841E0                   4
CHV                     C   1H   1          G     300.0    5000.0  1365.0      1
   2.21342975E0  2.15716841E-3 -5.73074267E-7 6.56809882E-11-2.67729778E-15    2
   1.04415563E5   9.20307557E0   3.50778851E0 -4.60811343E-4  1.32973337E-6    3
-5.15427373E-10 5.83223892E-14     1.039211E5   2.09978249E0                   4
CH3OH                   C   1H   4O   1     G     200.0    6000.0  1000.0      1
   3.52726795E0  1.03178783E-2 -3.62892944E-6 5.77448016E-10-3.42182632E-14    2
  -2.60028834E4   5.16758693E0   5.65851051E0 -1.62983419E-2  6.91938156E-5    3
 -7.58372926E-8  2.8042755E-11  -2.56119736E4 -8.97330508E-1                   4
CH3O                    C   1H   3O   1     G     200.0    6000.0  1000.0      1
   4.75779238E0  7.44142474E-3 -2.69705176E-6 4.38090504E-10-2.63537098E-14    2
    3.7811194E2  -1.96680028E0   3.71180502E0 -2.80463306E-3  3.76550971E-5    3
 -4.73072089E-8  1.8658842E-11    1.2956976E3   6.57240864E0                   4
CH2OH                   C   1H   3O   1     G     200.0    6000.0  1000.0      1
    5.0931437E0   5.9476126E-3  -2.0649746E-6 3.23008173E-10-1.88125902E-14    2
   -4.0340964E3  -1.84691493E0   4.47834367E0  -1.3507031E-3   2.7848498E-5    3
  -3.6486906E-8  1.4790745E-11   -3.5007289E3     3.309135E0                   4
HO2CHO                  C   1H   2O   3     G     300.0    5000.0  1378.0      1
   9.87503878E0  4.64663708E-3 -1.67230522E-6 2.68624413E-10-1.59595232E-14    2
  -3.80502496E4  -2.24939155E1   2.42464726E0   2.1970638E-2 -1.68705546E-5    3
  6.25612194E-9-9.11645843E-13  -3.54828006E4   1.75027796E1                   4
HOCH2O                  C   1H   3O   2     G     300.0    5000.0  1452.0      1
   6.39521515E0  7.43673043E-3 -2.50422354E-6 3.84879712E-10-2.21778689E-14    2
   -2.4110884E4  -6.63865583E0   4.11183145E0  7.53850697E-3   3.7733737E-6    3
 -5.38746005E-9 1.45615887E-12  -2.28023001E4   7.46807254E0                   4
O2CHO                   C   1H   1O   3     G     300.0    5000.0  1368.0      1
   7.24075139E0  4.63312951E-3 -1.63693995E-6 2.59706693E-10-1.52964699E-14    2
  -1.87027618E4  -6.49547212E0   3.96059309E0  1.06002279E-2 -5.25713351E-6    3
  1.01716726E-9-2.87487602E-14  -1.73599383E4   1.17807483E1                   4
HOCHO                   C   1H   2O   2     G     200.0    6000.0  1000.0      1
    4.6138316E0   6.4496364E-3  -2.2908251E-6  3.6716047E-10 -2.1873675E-14    2
    -4.751485E4   8.4788383E-1    3.8983616E0  -3.5587795E-3   3.5520538E-5    3
  -4.3849959E-8  1.7107769E-11   -4.6770609E4    7.3495397E0                   4
OCHO                    C   1H   1O   2     G     200.0    6000.0  1000.0      1
   4.14394211E0  5.59738818E-3 -1.99794019E-6 3.16179193E-10-1.85614483E-14    2
  -1.72459887E4   5.07778617E0   4.68825921E0 -4.14871834E-3   2.5506601E-5    3
   -2.844739E-8 1.04422559E-11  -1.69867041E4    4.2842648E0                   4
CH2O                    C   1H   2O   1     G     200.0    6000.0  1000.0      1
   3.16952665E0   6.1932056E-3 -2.25056366E-6  3.6597566E-10-2.20149458E-14    2
  -1.45486831E4   6.04207898E0   4.79372312E0 -9.90833322E-3   3.7321999E-5    3
 -3.79285237E-8 1.31772641E-11  -1.43791953E4  6.02798058E-1                   4
HCO                     C   1H   1O   1     G     200.0    6000.0  1000.0      1
   3.92001542E0  2.52279324E-3 -6.71004164E-7 1.05615948E-10-7.43798261E-15    2
   3.65342928E3   3.58077056E0    4.2375461E0 -3.32075257E-3  1.40030264E-5    3
 -1.34239995E-8 4.37416208E-12   3.87241185E3   3.30834869E0                   4
HCOH                    C   1H   2O   1     G     300.0    5000.0  1398.0      1
   9.18749272E0  1.52011152E-3 -6.27603516E-7 1.09727989E-10-6.89655128E-15    2
   7.81364593E3  -2.73434214E1  -2.82157421E0  3.57331702E-2  -3.8086158E-5    3
  1.86205951E-8-3.45957838E-12   1.12956672E4   3.48487757E1                   4
C2H5O2H                 C   2H   6O   2     G     200.0    3000.0  1000.0      1
    5.3698936E0  2.37894875E-2 -1.18319887E-5  2.84865959E-9-2.69529099E-13    2
  -2.23247897E4  1.97147446E-1   5.06694698E0  7.53007673E-3   4.8298334E-5    3
 -6.96260265E-8 2.86371917E-11  -2.15982512E4   5.41562645E0                   4
C2H5O2                  C   2H   5O   2     G     200.0    3000.0  1000.0      1
   4.70243558E0  2.19598579E-2 -1.10333734E-5  2.67891041E-9-2.55189141E-13    2
  -5.42484554E3   3.53031116E0   5.41024375E0 -6.93942023E-4  6.35336439E-5    3
 -8.37841039E-8 3.35867996E-11  -4.81407036E3   4.37174436E0                   4
C2H6                    C   2H   6          G     200.0    6000.0  1000.0      1
   4.04666411E0  1.53538802E-2 -5.47039485E-6 8.77826544E-10-5.23167531E-14    2
  -1.24473499E4 -9.68698313E-1   4.29142572E0 -5.50154901E-3  5.99438458E-5    3
 -7.08466469E-8 2.68685836E-11  -1.15222056E4   2.66678994E0                   4
C2H5                    C   2H   5          G     300.0    3500.0   700.0      1
  -1.10489358E0  2.43511913E-2 -1.39613152E-5  3.89870297E-9 -4.1728512E-13    2
   1.35030749E4   3.00146907E1   4.99501831E0  -1.0505448E-2  6.07314834E-5    3
 -6.72372957E-8 2.49884287E-11   1.26490872E4   2.76182763E0                   4
CHOCHO                  C   2H   2O   2     G     300.0    5000.0  1386.0      1
   9.75438561E0  4.97645947E-3 -1.74410483E-6 2.75586994E-10-1.61969892E-14    2
  -2.95832896E4  -2.61878329E1    1.8810512E0  2.36386368E-2 -1.83443295E-5    3
  6.84842963E-9-9.92733674E-13   -2.6928019E4   1.59154793E1                   4
C2H3OO                  C   2H   3O   2     G    298.15    2000.0  1000.0      1
   6.04483828E0  1.45511127E-2 -7.50974622E-6   1.8348828E-9-1.66689681E-13    2
   1.01699244E4  -3.71144913E0   1.09784776E0  2.95333237E-2  -2.2774436E-5    3
  7.20559155E-9-3.07929092E-13   1.13996101E4   2.13563583E1                   4
CHCHO                   C   2H   2O   1     G    298.15    2000.0  1000.0      1
    4.9263291E0  9.71712147E-3  -5.5485598E-6  1.53068537E-9-1.64742462E-13    2
   2.89499494E4  5.27874677E-1   2.33256751E0  1.62952986E-2 -9.72052177E-6    3
 5.15124155E-10 1.03836514E-12   2.96585452E4   1.39904923E1                   4
C2H4                    C   2H   4          G     200.0    3000.0  1000.0      1
   1.60864693E0  1.50609034E-2 -7.03415503E-6  1.60473454E-9-1.45035207E-13    2
   5.03481778E3   1.26522651E1   4.24760731E0 -9.92694869E-3  6.13390131E-5    3
 -7.26431229E-8 2.80785458E-11   5.01597556E3   2.91763124E0                   4
C2H3                    C   2H   3          G     200.0    3000.0  1000.0      1
   2.94703852E0  1.03773732E-2 -4.78133396E-6  1.07695608E-9-9.62134934E-14    2
   3.43648997E4   8.16989635E0   3.14512897E0  2.28305573E-3   2.3792141E-5    3
 -3.37614846E-8 1.40649792E-11    3.4566848E4   8.68163141E0                   4
C2O                     C   2O   1          G     200.0    6000.0  1000.0      1
   5.42468378E0  1.85393945E-3 -5.17932956E-7  6.7764623E-11-3.53315237E-15    2
   4.37161379E4  -3.69608405E0   2.86278214E0  1.19701204E-2 -1.80851222E-5    3
   1.5277773E-8-5.20063163E-12   4.43125964E4   8.89759099E0                   4
C2H2                    C   2H   2          G     200.0    6000.0  1000.0      1
   4.65878489E0  4.88396667E-3 -1.60828888E-6 2.46974544E-10-1.38605959E-14    2
   2.57594042E4  -3.99838194E0  8.08679682E-1  2.33615762E-2 -3.55172234E-5    3
  2.80152958E-8-8.50075165E-12   2.64289808E4   1.39396761E1                   4
C2H                     C   2H   1          G     200.0    6000.0  1000.0      1
   3.66270248E0  3.82492252E-3   -1.366325E-6  2.1345504E-10-1.23216848E-14    2
    6.7168379E4   3.92205792E0   2.89867676E0  1.32988489E-2 -2.80733327E-5    3
  2.89484755E-8-1.07502351E-11    6.7061605E4   6.18547632E0                   4
H2CC                    C   2H   2          G     200.0    6000.0  1000.0      1
     4.278034E0   4.7562804E-3  -1.6301009E-6  2.5462806E-10 -1.4886379E-14    2
    4.8316688E4   6.4023701E-1    3.2815483E0   6.9764791E-3  -2.3855244E-6    3
  -1.2104432E-9  9.8189545E-13    4.8621794E4     5.920391E0                   4
C2                      C   2               G     200.0    6000.0  1000.0      1
   3.25289233E0  1.23190307E-3 -4.50354156E-7 7.49356656E-11-4.57925077E-15    2
   9.83737348E4   3.95859964E0   3.69386038E0 -1.84767427E-3  5.23712984E-6    3
 -3.83965401E-9 8.61135711E-13   9.83822318E4   2.23677006E0                   4
O2C2H4OH                C   2H   5O   3     G     300.0    2500.0   800.0      1
    5.564182E-1   4.1251869E-2  -3.1064687E-5    1.229296E-8 -1.9969071E-12    2
    -2.204739E4    2.4998308E1    5.564182E-1   4.1251869E-2  -3.1064687E-5    3
    1.229296E-8 -1.9969071E-12    -2.204739E4    2.4998308E1                   4
C2H4O2H                 C   2H   5O   2     G     200.0    3000.0  1000.0      1
   6.78041359E0  1.83275444E-2 -8.91431995E-6  2.10717647E-9 -1.9640965E-13    2
   3.29131978E3  -4.72895313E0   7.21049238E0 -8.05223553E-4  5.64608626E-5    3
 -7.53070591E-8 3.05453325E-11    3.8411079E3  -3.13534586E0                   4
C2H4O1-2                C   2H   4O   1     G     200.0    6000.0  1000.0      1
    5.4887641E0    1.204619E-2  -4.3336931E-6  7.0028311E-10 -4.1949088E-14    2
   -9.1804251E3   -7.0799605E0    3.7590532E0   -9.441218E-3   8.0309721E-5    3
  -1.0080788E-7  4.0039921E-11   -7.5608143E3    7.8497475E0                   4
C2H3O1-2                C   2H   3O   1     G     200.0    6000.0  1000.0      1
   5.60158035E0  9.17613962E-3 -3.28028902E-6 5.27903888E-10-3.15362241E-14    2
   1.71446252E4  -5.47228512E0   3.58349017E0 -6.02275805E-3  6.32426867E-5    3
 -8.18540707E-8 3.30444505E-11   1.85681353E4   9.59725926E0                   4
C2H5OH                  C   2H   6O   1     G     300.0    5000.0  1402.0      1
   8.14483865E0  1.28314052E-2 -4.29052743E-6 6.55971721E-10-3.76506611E-14    2
  -3.24005526E4  -1.86241126E1  2.15805861E-1  2.95228396E-2 -1.68271048E-5    3
  4.49484797E-9-4.02451543E-13  -2.94851823E4   2.45725052E1                   4
C2H5O                   C   2H   5O   1     G     300.0    5000.0  1467.0      1
   8.19120635E0  1.10391986E-2 -3.75270536E-6 5.80275784E-10-3.35735146E-14    2
  -5.66847208E3  -1.90131344E1   2.90353584E0  1.77256708E-2 -2.69624757E-6    3
 -3.45830533E-9 1.25224784E-12   -3.2893029E3   1.13545591E1                   4
PC2H4OH                 C   2H   5O   1     G     200.0    6000.0  1000.0      1
   7.01348674E0  1.20204391E-2 -4.21992012E-6 6.70675981E-10-3.97135273E-14    2
  -6.16161779E3  -8.62052409E0   4.20954137E0  9.12964578E-3  2.47462263E-5    3
 -3.92945764E-8 1.66541312E-11  -4.91511371E3   8.30445413E0                   4
SC2H4OH                 C   2H   5O   1     G     300.0    5000.0  1385.0      1
   8.15007136E0  1.02549305E-2 -3.40137764E-6 5.17509965E-10-2.96128942E-14    2
  -1.05014386E4  -1.73134615E1   1.46281093E0  2.39193995E-2 -1.30667185E-5    3
  3.10615465E-9-1.85896007E-13  -8.00790323E3   1.92547092E1                   4
O2CH2CHO                C   2H   3O   3     G     300.0    5000.0  1393.0      1
   1.11807543E1  9.14479256E-3 -3.15089833E-6 4.91944238E-10 -2.8663918E-14    2
  -1.55790331E4   -2.8789274E1  -1.29465843E0  4.44936393E-2 -4.26577074E-5    3
   2.0739195E-8-3.96828771E-12  -1.18275628E4   3.60778797E1                   4
HO2CH2CO                C   2H   3O   3     G     300.0    5000.0  1386.0      1
   1.04146322E1  1.12680116E-2 -5.17494839E-6  1.00333285E-9-6.68165911E-14    2
  -1.40955672E4    -2.278944E1   2.22681686E0   3.5678138E-2 -3.26401909E-5    3
  1.47651988E-8 -2.6479438E-12  -1.18735095E4   1.91581197E1                   4
CH2CO2                  C   2H   2O   2     G     300.0    5000.0  1000.0      1
   7.65364625E0  8.11459788E-3 -3.27402215E-6  6.0472528E-10-4.19318185E-14    2
  -2.47039852E3  -1.29488037E1   1.58410663E0  2.55753337E-2 -1.92389918E-5    3
  4.43061572E-9 7.05951245E-13  -9.15619463E2   1.80375721E1                   4
CH3CHOHOJ               C   2H   5O   2     G     300.0    5000.0  1475.0      1
   1.17676393E1  1.08162215E-2 -3.83103211E-6 6.08854274E-10-3.59050266E-14    2
  -3.02788234E4  -3.48553283E1   6.81886048E0  1.12137609E-2  9.27132951E-6    3
 -1.14593687E-8 3.04523365E-12  -2.74487304E4  -4.32313391E0                   4
CH3CHO                  C   2H   4O   1     G     200.0    6000.0  1000.0      1
    5.4041108E0   1.1723059E-2  -4.2263137E-6  6.8372451E-10 -4.0984863E-14    2
   -2.2593122E4   -3.4807917E0    4.7294595E0  -3.1932858E-3   4.7534921E-5    3
  -5.7458611E-8  2.1931112E-11   -2.1572878E4    4.1030159E0                   4
CH3CO                   C   2H   3O   1     G     200.0    6000.0  1000.0      1
    5.3137165E0   9.1737793E-3  -3.3220386E-6  5.3947456E-10 -3.2452368E-14    2
   -3.6450414E3   -1.6757558E0    4.0358705E0   8.7729487E-4    3.071001E-5    3
  -3.9247565E-8  1.5296869E-11   -2.6820738E3    7.8617682E0                   4
CH2CHO                  C   2H   3O   1     G     298.0    3000.0  1000.0      1
    3.6302633E0  1.41239404E-2 -7.16478146E-6  1.76263004E-9-1.70391996E-13    2
   4.29875072E2   6.20577997E0  9.86311004E-1  2.24920216E-2 -1.64812936E-5    3
  5.86617239E-9-6.81551147E-13   1.07163704E3   1.95196726E1                   4
C2H3OH                  C   2H   4O   1     G     300.0    5000.0  1410.0      1
   8.32598158E0  8.03387281E-3 -2.63928405E-6 3.98410726E-10-2.26551155E-14    2
  -1.83221436E4  -2.02080305E1  -1.2797226E-1  3.38506073E-2 -3.30644935E-5    3
  1.64858739E-8-3.19935455E-12  -1.59914544E4   2.30438601E1                   4
C2H2OH                  C   2H   3O   1     G     300.0    5000.0  1401.0      1
   8.20268447E0  5.92989165E-3 -1.99194448E-6 3.05794341E-10-1.76114732E-14    2
   1.24881328E4  -1.89670436E1  6.41642616E-1  2.61903633E-2  -2.3038537E-5    3
  1.02804704E-8-1.81971416E-12   1.48276951E4   2.06750999E1                   4
SC2H2OH                 C   2H   3O   1     G     300.0    5000.0  1410.0      1
   7.99235139E0  5.83109353E-3 -1.89242965E-6 2.83129118E-10-1.59933287E-14    2
   9.51237374E3  -1.62058375E1   1.63791895E0  2.64968839E-2 -2.74821415E-5    3
  1.43110557E-8-2.85794966E-12   1.11467016E4   1.58714777E1                   4
CH2CO                   C   2H   2O   1     G     300.0    5000.0  1387.0      1
    6.3646703E0  5.45786699E-3 -1.84268576E-6 2.83411786E-10-1.63298616E-14    2
  -8.24720912E3  -9.42955479E0   4.99492822E0  7.27504908E-3 -2.16744674E-6    3
-9.25637041E-11  1.1264695E-13  -7.59099666E3  -1.51259007E0                   4
HCCO                    C   2H   1O   1     G     200.0    6000.0  1000.0      1
   5.91479333E0   3.7140873E-3  -1.3013701E-6 2.06473345E-10-1.21476759E-14    2
   1.93596301E4  -5.50567269E0   1.87607969E0  2.21205418E-2 -3.58869325E-5    3
  3.05402541E-8-1.01281069E-11    2.0163384E4    1.3696829E1                   4
HCCOH                   C   2H   2O   1     G     200.0    6000.0  1000.0      1
   6.37509678E0  5.49429011E-3 -1.88136576E-6 2.93803536E-10-1.71771901E-14    2
   8.93277676E3  -8.24498007E0   2.05541154E0  2.52003372E-2 -3.80821654E-5    3
  3.09890632E-8-9.89799902E-12   9.76872113E3   1.22271534E1                   4
CH2COOH                 C   2H   3O   2     G     100.0    5000.0  1058.0      1
    7.9836337E0  1.18141983E-2 -5.27086059E-6    1.043317E-9-7.61676344E-14    2
  -3.15520596E4   -1.6085263E1   2.92688293E0  1.79294703E-2   4.4942781E-6    3
 -1.67263265E-8 6.86762832E-12  -2.97543074E4   1.20349895E1                   4
CH3CCO                  C   3H   3O   1     G     100.0    5000.0  450.61      1
   4.07733162E0  1.56711833E-2 -6.97158858E-6  1.31787764E-9-9.17660519E-14    2
   1.95006394E4   7.83646777E0   3.34387132E0  1.74325291E-2  2.97569379E-6    3
 -3.67906168E-8 3.40290463E-11   1.96149582E4   1.13253443E1                   4
CH3COH                  C   2H   4O   1     G     100.0    5000.0 1002.18      1
   7.92846957E0   8.1587547E-3 -2.91410601E-6 5.15186396E-10-3.55331439E-14    2
   2.33088834E4  -1.53492432E1   2.84111291E0  2.24591992E-2 -1.53305901E-5    3
   2.7961625E-9 8.86886968E-13   2.46301178E4   1.07098389E1                   4
CH3CO3H                 C   2H   4O   3     G     300.0    5000.0  1391.0      1
   1.25060485E1  9.47789695E-3 -3.30402246E-6 5.19630793E-10-3.04233568E-14    2
  -4.59856703E4  -3.79195947E1   2.24135876E0  3.37963514E-2 -2.53887482E-5    3
  9.67583587E-9-1.49266157E-12  -4.24677831E4   1.70668133E1                   4
CH3CO3                  C   2H   3O   3     G     300.0    5000.0  1391.0      1
   1.12522498E1  8.33652672E-3  -2.8901453E-6 4.52781734E-10-2.64354456E-14    2
  -2.60238584E4  -2.96370457E1   3.60373432E0  2.70080341E-2 -2.08293438E-5    3
  8.50541104E-9 -1.4384611E-12  -2.34205171E4   1.12014914E1                   4
CH3CO2                  C   2H   3O   2     G     300.0    5000.0  1395.0      1
   8.54059736E0  8.32951214E-3  -2.8472201E-6 4.41927196E-10-2.56373394E-14    2
  -2.97290678E4  -2.03883545E1   1.37440768E0  2.49115604E-2 -1.74308894E-5    3
  6.24799508E-9-9.09516835E-13   -2.7233015E4   1.81405454E1                   4
CH3CCHO                 C   3H   4O   1     G     100.0    5000.0   936.0      1
   1.05962069E1  7.73832919E-3 -1.89913832E-6 3.08803446E-10-2.31638998E-14    2
   1.89349404E4  -2.87420455E1   2.65781507E0  2.15986318E-2  8.04306562E-6    3
 -2.96741688E-8 1.41019327E-11   2.12999358E4   1.37261686E1                   4
!CH3CCHO                 C   3H   4O   1     G    100.00   5000.00  883.64      1
! 2.98584084E+00 2.37247777E-02-1.24837190E-05 2.42903257E-09-1.68049827E-13    2
! 2.97296039E+04 1.32146618E+01 2.68347107E+00 2.93743982E-02-2.93408969E-05    3
! 2.06294433E-08-6.86839802E-12 2.96159099E+04 1.36903236E+01                   4
CH2CCO                  C   3H   2O   1     G    298.15    2000.0  1000.0      1
   4.40003435E0  1.25785246E-2 -5.91887918E-6  1.27758857E-9-9.45874595E-14    2
   1.33314103E4   4.29517065E0   3.60551892E0  1.45152309E-2 -6.96190546E-6    3
 7.31583992E-10 3.52252542E-13   1.35523812E4   8.43858717E0                   4
NC3H7O2H                C   3H   8O   2     G     200.0    3000.0  1000.0      1
   5.70339505E0  3.28158196E-2 -1.62801919E-5  3.91404915E-9-3.70006532E-13    2
  -2.51228391E4   1.45914358E0   6.73138747E0  7.17215968E-3  6.55879836E-5    3
 -8.95268374E-8  3.5818372E-11  -2.44958475E4   1.16746323E0                   4
NC3H7O2                 C   3H   7O   2     G     200.0    3000.0  1000.0      1
   4.91998559E0  3.15132726E-2 -1.58821725E-5  3.86554476E-9-3.68943114E-13    2
  -8.25948108E3   4.98449512E0   5.47042383E0  8.03725792E-3  6.23369337E-5    3
 -8.69404455E-8 3.51435174E-11   -7.5459419E3   6.93921239E0                   4
C3H6OOH1-2              C   3H   7O   2     G     200.0    3000.0  1000.0      1
    6.5069906E0  2.85213018E-2 -1.41417909E-5  3.39938293E-9-3.21373645E-13    2
  -1.45012873E3 -1.87717582E-1   6.34979532E0  8.11708872E-3   5.9405573E-5    3
 -8.44703358E-8 3.45623896E-11  -6.15937814E2   5.09764555E0                   4
C3H6OOH1-3              C   3H   7O   2     G     200.0    3000.0  1000.0      1
    7.2312653E0   2.7742981E-2 -1.37595857E-5  3.30768532E-9 -3.1271468E-13    2
  -4.43242263E2  -5.41152147E0   5.50078943E0  1.50499925E-2  4.54145213E-5    3
 -7.25615652E-8 3.08058933E-11   6.52616591E2    7.1582156E0                   4
C3H6OOH2-1              C   3H   7O   2     G     200.0    3000.0  1000.0      1
   8.51331015E0  2.56658986E-2 -1.24736987E-5  2.94899846E-9-2.75019865E-13    2
  -2.00090673E3  -1.31841385E1   7.62269432E0  1.11030055E-2  4.70014253E-5    3
 -7.11121549E-8 2.97645184E-11  -1.14650501E3  -5.02948467E0                   4
C3H6OOH1-3O2            C   3H   7O   4     G     200.0    3000.0  1000.0      1
    1.2607889E1  2.93092235E-2  -1.5084075E-5  3.73118698E-9-3.60788937E-13    2
  -1.96011992E4     -3.08301E1   7.24781475E0  3.28928441E-2  1.30495909E-5    3
 -4.36381462E-8  2.0651332E-11  -1.77709148E4  -9.1772504E-1                   4
C3KET12                 C   3H   6O   3     G     200.0    3000.0  1000.0      1
   9.32342424E0   2.6207395E-2 -1.33353001E-5  3.27346318E-9-3.14797458E-13    2
  -3.58698068E4  -1.60526738E1   4.41631201E0  3.07003361E-2  9.88578816E-6    3
 -3.89641249E-8 1.91158735E-11  -3.42762651E4   1.09624997E1                   4
C3KET13                 C   3H   6O   3     G     200.0    3000.0  1000.0      1
   8.58106638E0  2.73143185E-2 -1.39521051E-5  3.42955156E-9-3.29871443E-13    2
  -3.47726042E4  -1.11674324E1   7.59820874E0  2.30624183E-2   6.9084067E-6    3
 -2.23357702E-8 9.80969635E-12  -3.42038835E4  -4.50289938E0                   4
C3H6O1-2                C   3H   6O   1     G     200.0    6000.0  1000.0      1
   8.01491079E0  1.73919953E-2 -6.26027968E-6  1.01188256E-9-6.06239111E-14    2
  -1.51980838E4  -1.88279964E1   3.42806676E0  6.25176642E-3  6.13196311E-5    3
 -8.60387185E-8 3.51371393E-11  -1.28446646E4   1.04244994E1                   4
C3H6O1-3                C   3H   6O   1     G     200.0    6000.0  1000.0      1
   6.80716906E0  1.88824545E-2 -6.79082475E-6  1.09713919E-9-6.57154952E-14    2
  -1.36547629E4  -1.35382154E1   5.15283752E0 -1.86401716E-2  1.29980652E-4    3
 -1.58629974E-7 6.20668783E-11  -1.13243512E4   4.73561224E0                   4
SC3H5OO                 C   3H   5O   2     G     300.0    5000.0  1391.0      1
    1.3124657E1  1.17719171E-2 -4.06154905E-6  6.3436506E-10-3.69622374E-14    2
    3.1978525E3   -4.0625695E1   2.37869252E0  3.63937952E-2 -2.54689963E-5    3
  9.05375431E-9-1.30368839E-12   6.97002244E3   1.72448228E1                   4
TC3H5OO                 C   3H   5O   2     G     300.0    5000.0  1427.0      1